DEPTH = 64;
WIDTH = 32;
ADDRESS_RADIX = HEX;
DATA_RADIX = HEX;
CONTENT
BEGIN
   0 : 00000000;
   1 : 00000000;
   2 : 00000000;
   3 : 00000000;
   4 : 00000000;
   5 : 00000000;
   6 : 00000000;
   7 : 00000000;
   8 : 00000000;
   9 : 00000000;
   A : 00000000;
   B : 00000000;
   C : 00000000;
   D : 00000000;
   E : 00000000;
   F : 00000000;
  10 : 00000000;
  11 : 00000000;
  12 : 00000000;
  13 : 00000000;
  14 : 00000000;
  15 : 00000000;
  16 : 00000000;
  17 : 00000000;
  18 : 00000000;
  19 : 00000000;
  1A : 00000000;
  1B : 00000000;
  1C : 00000000;
  1D : 00000000;
  1E : 00000000;
  1F : 00000000;
  20 : 00000000;
  21 : 00000000;
  22 : 00000000;
  23 : 00000000;
  24 : 00000000;
  25 : 00000000;
  26 : 00000000;
  27 : 00000000;
  28 : 00000000;
  29 : 00000000;
  2A : 00000000;
  2B : 00000000;
  2C : 00000000;
  2D : 00000000;
  2E : 00000000;
  2F : 00000000;
  30 : 00000000;
  31 : 00000000;
  32 : 00000000;
  33 : 00000000;
  34 : 00000000;
  35 : 00000000;
  36 : 00000000;
  37 : 00000000;
  38 : 00000000;
  39 : 00000000;
  3A : 00000000;
  3B : 00000000;
  3C : 00000000;
  3D : 00000000;
  3E : 00000000;
  3F : 00000000;
END;
