DEPTH = 1024;
WIDTH = 32;
ADDRESS_RADIX = HEX;
DATA_RADIX = HEX;
CONTENT
BEGIN
   0 : 00000024; --     .word HelloWorld
   1 : 000002e7; --     .word HelloWorldEntry
   2 : 00000054; --     .word BallGame
   3 : 0000031b; --     .word BallGameEntry
   4 : 0000007c; --     .word Ball
   5 : 000004fe; --     .word BallEntry
   6 : 00000000; --     .word 0
   7 : 00000000; --     .word 0
   8 : 00000000; -- cur: .word 0
   9 : 00000068;
   A : 00000065;
   B : 0000006c;
   C : 0000006c;
   D : 0000006f;
   E : 0000005f;
   F : 00000077;
  10 : 0000006f;
  11 : 00000072;
  12 : 0000006c;
  13 : 00000064;
  14 : 00000000; -- HelloWorld: .string "hello_world"
  15 : 00000062;
  16 : 00000061;
  17 : 0000006c;
  18 : 0000006c;
  19 : 0000005f;
  1A : 00000067;
  1B : 00000061;
  1C : 0000006d;
  1D : 00000065;
  1E : 00000000; -- BallGame: .string "ball_game"
  1F : 00000062;
  20 : 00000061;
  21 : 0000006c;
  22 : 0000006c;
  23 : 00000000; -- Ball: .string "ball"
  24 : 00000000;
  25 : 00000000;
  26 : 00000000;
  27 : 00000000;
  28 : 00000000;
  29 : 00000000;
  2A : 00000000;
  2B : 00000000;
  2C : 00000000;
  2D : 00000000;
  2E : 00000000;
  2F : 00000000;
  30 : 00000000;
  31 : 00000000;
  32 : 00000000;
  33 : 00000000;
  34 : 00000000;
  35 : 00000000;
  36 : 00000000;
  37 : 00000000;
  38 : 00000000;
  39 : 00000000;
  3A : 00000000;
  3B : 00000000;
  3C : 00000000;
  3D : 00000000;
  3E : 00000000;
  3F : 00000000;
  40 : 00000000;
  41 : 00000000;
  42 : 00000000;
  43 : 00000000;
  44 : 00000000;
  45 : 00000000;
  46 : 00000000;
  47 : 00000000;
  48 : 00000000;
  49 : 00000000;
  4A : 00000000;
  4B : 00000000;
  4C : 00000000;
  4D : 00000000;
  4E : 00000000;
  4F : 00000000;
  50 : 00000000;
  51 : 00000000;
  52 : 00000000;
  53 : 00000000;
  54 : 00000000;
  55 : 00000000;
  56 : 00000000;
  57 : 00000000;
  58 : 00000000;
  59 : 00000000;
  5A : 00000000;
  5B : 00000000;
  5C : 00000000;
  5D : 00000000;
  5E : 00000000;
  5F : 00000000;
  60 : 00000000;
  61 : 00000000;
  62 : 00000000;
  63 : 00000000;
  64 : 00000000;
  65 : 00000000;
  66 : 00000000;
  67 : 00000000;
  68 : 00000000;
  69 : 00000000;
  6A : 00000000;
  6B : 00000000;
  6C : 00000000;
  6D : 00000000;
  6E : 00000000;
  6F : 00000000;
  70 : 00000000;
  71 : 00000000;
  72 : 00000000;
  73 : 00000000;
  74 : 00000000;
  75 : 00000000;
  76 : 00000000;
  77 : 00000000;
  78 : 00000000;
  79 : 00000000;
  7A : 00000000;
  7B : 00000000;
  7C : 00000000;
  7D : 00000000;
  7E : 00000000;
  7F : 00000000;
  80 : 00000000;
  81 : 00000000;
  82 : 00000000;
  83 : 00000000;
  84 : 00000000;
  85 : 00000000;
  86 : 00000000;
  87 : 00000000; --     .zero 100
  88 : 00000000; --     .word 0x00
  89 : 00000000; --     .word 0x00
  8A : 00000000; --     .word 0x00
  8B : 00000000; --     .word 0x00
  8C : 00000000; --     .word 0x00 # ''
  8D : 00000000; --     .word 0x00
  8E : 00000000; --     .word 0x00
  8F : 0000005f; --     .word 0x5F
  90 : 00000000; --     .word 0x00
  91 : 00000000; --     .word 0x00 # !
  92 : 00000000; --     .word 0x00
  93 : 00000007; --     .word 0x07
  94 : 00000000; --     .word 0x00
  95 : 00000007; --     .word 0x07
  96 : 00000000; --     .word 0x00 # "
  97 : 00000014; --     .word 0x14
  98 : 0000007f; --     .word 0x7F
  99 : 00000014; --     .word 0x14
  9A : 0000007f; --     .word 0x7F
  9B : 00000014; --     .word 0x14 # #
  9C : 00000024; --     .word 0x24
  9D : 0000002a; --     .word 0x2A
  9E : 00000007; --     .word 0x07
  9F : 0000002a; --     .word 0x2A
  A0 : 00000012; --     .word 0x12 # $
  A1 : 00000023; --     .word 0x23
  A2 : 00000013; --     .word 0x13
  A3 : 00000008; --     .word 0x08
  A4 : 00000064; --     .word 0x64
  A5 : 00000062; --     .word 0x62 # %
  A6 : 00000037; --     .word 0x37
  A7 : 00000049; --     .word 0x49
  A8 : 00000055; --     .word 0x55
  A9 : 00000022; --     .word 0x22
  AA : 00000050; --     .word 0x50 # &
  AB : 00000000; --     .word 0x00
  AC : 00000005; --     .word 0x05
  AD : 00000003; --     .word 0x03
  AE : 00000000; --     .word 0x00
  AF : 00000000; --     .word 0x00 # '
  B0 : 00000000; --     .word 0x00
  B1 : 0000001c; --     .word 0x1C
  B2 : 00000022; --     .word 0x22
  B3 : 00000041; --     .word 0x41
  B4 : 00000000; --     .word 0x00 # (
  B5 : 00000000; --     .word 0x00
  B6 : 00000041; --     .word 0x41
  B7 : 00000022; --     .word 0x22
  B8 : 0000001c; --     .word 0x1C
  B9 : 00000000; --     .word 0x00 # )
  BA : 00000008; --     .word 0x08
  BB : 0000002a; --     .word 0x2A
  BC : 0000001c; --     .word 0x1C
  BD : 0000002a; --     .word 0x2A
  BE : 00000008; --     .word 0x08 # *
  BF : 00000008; --     .word 0x08
  C0 : 00000008; --     .word 0x08
  C1 : 0000003e; --     .word 0x3E
  C2 : 00000008; --     .word 0x08
  C3 : 00000008; --     .word 0x08 # +
  C4 : 00000000; --     .word 0x00
  C5 : 00000050; --     .word 0x50
  C6 : 00000030; --     .word 0x30
  C7 : 00000000; --     .word 0x00
  C8 : 00000000; --     .word 0x00 # ,
  C9 : 00000008; --     .word 0x08
  CA : 00000008; --     .word 0x08
  CB : 00000008; --     .word 0x08
  CC : 00000008; --     .word 0x08
  CD : 00000008; --     .word 0x08 # -
  CE : 00000000; --     .word 0x00
  CF : 00000060; --     .word 0x60
  D0 : 00000060; --     .word 0x60
  D1 : 00000000; --     .word 0x00
  D2 : 00000000; --     .word 0x00 # .
  D3 : 00000020; --     .word 0x20
  D4 : 00000010; --     .word 0x10
  D5 : 00000008; --     .word 0x08
  D6 : 00000004; --     .word 0x04
  D7 : 00000002; --     .word 0x02 # /
  D8 : 0000003e; --     .word 0x3E
  D9 : 00000051; --     .word 0x51
  DA : 00000049; --     .word 0x49
  DB : 00000045; --     .word 0x45
  DC : 0000003e; --     .word 0x3E # 0
  DD : 00000000; --     .word 0x00
  DE : 00000042; --     .word 0x42
  DF : 0000007f; --     .word 0x7F
  E0 : 00000040; --     .word 0x40
  E1 : 00000000; --     .word 0x00 # 1
  E2 : 00000042; --     .word 0x42
  E3 : 00000061; --     .word 0x61
  E4 : 00000051; --     .word 0x51
  E5 : 00000049; --     .word 0x49
  E6 : 00000046; --     .word 0x46 # 2
  E7 : 00000021; --     .word 0x21
  E8 : 00000041; --     .word 0x41
  E9 : 00000045; --     .word 0x45
  EA : 0000004b; --     .word 0x4B
  EB : 00000031; --     .word 0x31 # 3
  EC : 00000018; --     .word 0x18
  ED : 00000014; --     .word 0x14
  EE : 00000012; --     .word 0x12
  EF : 0000007f; --     .word 0x7F
  F0 : 00000010; --     .word 0x10 # 4
  F1 : 00000027; --     .word 0x27
  F2 : 00000045; --     .word 0x45
  F3 : 00000045; --     .word 0x45
  F4 : 00000045; --     .word 0x45
  F5 : 00000039; --     .word 0x39 # 5
  F6 : 0000003c; --     .word 0x3C
  F7 : 0000004a; --     .word 0x4A
  F8 : 00000049; --     .word 0x49
  F9 : 00000049; --     .word 0x49
  FA : 00000030; --     .word 0x30 # 6
  FB : 00000001; --     .word 0x01
  FC : 00000071; --     .word 0x71
  FD : 00000009; --     .word 0x09
  FE : 00000005; --     .word 0x05
  FF : 00000003; --     .word 0x03 # 7
 100 : 00000036; --     .word 0x36
 101 : 00000049; --     .word 0x49
 102 : 00000049; --     .word 0x49
 103 : 00000049; --     .word 0x49
 104 : 00000036; --     .word 0x36 # 8
 105 : 00000006; --     .word 0x06
 106 : 00000049; --     .word 0x49
 107 : 00000049; --     .word 0x49
 108 : 00000029; --     .word 0x29
 109 : 0000001e; --     .word 0x1E # 9
 10A : 00000000; --     .word 0x00
 10B : 00000036; --     .word 0x36
 10C : 00000036; --     .word 0x36
 10D : 00000000; --     .word 0x00
 10E : 00000000; --     .word 0x00 # :
 10F : 00000000; --     .word 0x00
 110 : 00000056; --     .word 0x56
 111 : 00000036; --     .word 0x36
 112 : 00000000; --     .word 0x00
 113 : 00000000; --     .word 0x00 # ;
 114 : 00000000; --     .word 0x00
 115 : 00000008; --     .word 0x08
 116 : 00000014; --     .word 0x14
 117 : 00000022; --     .word 0x22
 118 : 00000041; --     .word 0x41 # <
 119 : 00000014; --     .word 0x14
 11A : 00000014; --     .word 0x14
 11B : 00000014; --     .word 0x14
 11C : 00000014; --     .word 0x14
 11D : 00000014; --     .word 0x14 # =
 11E : 00000041; --     .word 0x41
 11F : 00000022; --     .word 0x22
 120 : 00000014; --     .word 0x14
 121 : 00000008; --     .word 0x08
 122 : 00000000; --     .word 0x00 # >
 123 : 00000002; --     .word 0x02
 124 : 00000001; --     .word 0x01
 125 : 00000051; --     .word 0x51
 126 : 00000009; --     .word 0x09
 127 : 00000006; --     .word 0x06 # ?
 128 : 00000032; --     .word 0x32
 129 : 00000049; --     .word 0x49
 12A : 00000079; --     .word 0x79
 12B : 00000041; --     .word 0x41
 12C : 0000003e; --     .word 0x3E # @
 12D : 0000007e; --     .word 0x7E
 12E : 00000011; --     .word 0x11
 12F : 00000011; --     .word 0x11
 130 : 00000011; --     .word 0x11
 131 : 0000007e; --     .word 0x7E # A
 132 : 0000007f; --     .word 0x7F
 133 : 00000049; --     .word 0x49
 134 : 00000049; --     .word 0x49
 135 : 00000049; --     .word 0x49
 136 : 00000036; --     .word 0x36 # B
 137 : 0000003e; --     .word 0x3E
 138 : 00000041; --     .word 0x41
 139 : 00000041; --     .word 0x41
 13A : 00000041; --     .word 0x41
 13B : 00000022; --     .word 0x22 # C
 13C : 0000007f; --     .word 0x7F
 13D : 00000041; --     .word 0x41
 13E : 00000041; --     .word 0x41
 13F : 00000022; --     .word 0x22
 140 : 0000001c; --     .word 0x1C # D
 141 : 0000007f; --     .word 0x7F
 142 : 00000049; --     .word 0x49
 143 : 00000049; --     .word 0x49
 144 : 00000049; --     .word 0x49
 145 : 00000041; --     .word 0x41 # E
 146 : 0000007f; --     .word 0x7F
 147 : 00000009; --     .word 0x09
 148 : 00000009; --     .word 0x09
 149 : 00000001; --     .word 0x01
 14A : 00000001; --     .word 0x01 # F
 14B : 0000003e; --     .word 0x3E
 14C : 00000041; --     .word 0x41
 14D : 00000041; --     .word 0x41
 14E : 00000051; --     .word 0x51
 14F : 00000032; --     .word 0x32 # G
 150 : 0000007f; --     .word 0x7F
 151 : 00000008; --     .word 0x08
 152 : 00000008; --     .word 0x08
 153 : 00000008; --     .word 0x08
 154 : 0000007f; --     .word 0x7F # H
 155 : 00000000; --     .word 0x00
 156 : 00000041; --     .word 0x41
 157 : 0000007f; --     .word 0x7F
 158 : 00000041; --     .word 0x41
 159 : 00000000; --     .word 0x00 # I
 15A : 00000020; --     .word 0x20
 15B : 00000040; --     .word 0x40
 15C : 00000041; --     .word 0x41
 15D : 0000003f; --     .word 0x3F
 15E : 00000001; --     .word 0x01 # J
 15F : 0000007f; --     .word 0x7F
 160 : 00000008; --     .word 0x08
 161 : 00000014; --     .word 0x14
 162 : 00000022; --     .word 0x22
 163 : 00000041; --     .word 0x41 # K
 164 : 0000007f; --     .word 0x7F
 165 : 00000040; --     .word 0x40
 166 : 00000040; --     .word 0x40
 167 : 00000040; --     .word 0x40
 168 : 00000040; --     .word 0x40 # L
 169 : 0000007f; --     .word 0x7F
 16A : 00000002; --     .word 0x02
 16B : 00000004; --     .word 0x04
 16C : 00000002; --     .word 0x02
 16D : 0000007f; --     .word 0x7F # M
 16E : 0000007f; --     .word 0x7F
 16F : 00000004; --     .word 0x04
 170 : 00000008; --     .word 0x08
 171 : 00000010; --     .word 0x10
 172 : 0000007f; --     .word 0x7F # N
 173 : 0000003e; --     .word 0x3E
 174 : 00000041; --     .word 0x41
 175 : 00000041; --     .word 0x41
 176 : 00000041; --     .word 0x41
 177 : 0000003e; --     .word 0x3E # O
 178 : 0000007f; --     .word 0x7F
 179 : 00000009; --     .word 0x09
 17A : 00000009; --     .word 0x09
 17B : 00000009; --     .word 0x09
 17C : 00000006; --     .word 0x06 # P
 17D : 0000003e; --     .word 0x3E
 17E : 00000041; --     .word 0x41
 17F : 00000051; --     .word 0x51
 180 : 00000021; --     .word 0x21
 181 : 0000005e; --     .word 0x5E # Q
 182 : 0000007f; --     .word 0x7F
 183 : 00000009; --     .word 0x09
 184 : 00000019; --     .word 0x19
 185 : 00000029; --     .word 0x29
 186 : 00000046; --     .word 0x46 # R
 187 : 00000046; --     .word 0x46
 188 : 00000049; --     .word 0x49
 189 : 00000049; --     .word 0x49
 18A : 00000049; --     .word 0x49
 18B : 00000031; --     .word 0x31 # S
 18C : 00000001; --     .word 0x01
 18D : 00000001; --     .word 0x01
 18E : 0000007f; --     .word 0x7F
 18F : 00000001; --     .word 0x01
 190 : 00000001; --     .word 0x01 # T
 191 : 0000003f; --     .word 0x3F
 192 : 00000040; --     .word 0x40
 193 : 00000040; --     .word 0x40
 194 : 00000040; --     .word 0x40
 195 : 0000003f; --     .word 0x3F # U
 196 : 0000001f; --     .word 0x1F
 197 : 00000020; --     .word 0x20
 198 : 00000040; --     .word 0x40
 199 : 00000020; --     .word 0x20
 19A : 0000001f; --     .word 0x1F # V
 19B : 0000007f; --     .word 0x7F
 19C : 00000020; --     .word 0x20
 19D : 00000018; --     .word 0x18
 19E : 00000020; --     .word 0x20
 19F : 0000007f; --     .word 0x7F # W
 1A0 : 00000063; --     .word 0x63
 1A1 : 00000014; --     .word 0x14
 1A2 : 00000008; --     .word 0x08
 1A3 : 00000014; --     .word 0x14
 1A4 : 00000063; --     .word 0x63 # X
 1A5 : 00000003; --     .word 0x03
 1A6 : 00000004; --     .word 0x04
 1A7 : 00000078; --     .word 0x78
 1A8 : 00000004; --     .word 0x04
 1A9 : 00000003; --     .word 0x03 # Y
 1AA : 00000061; --     .word 0x61
 1AB : 00000051; --     .word 0x51
 1AC : 00000049; --     .word 0x49
 1AD : 00000045; --     .word 0x45
 1AE : 00000043; --     .word 0x43 # Z
 1AF : 00000000; --     .word 0x00
 1B0 : 00000000; --     .word 0x00
 1B1 : 0000007f; --     .word 0x7F
 1B2 : 00000041; --     .word 0x41
 1B3 : 00000041; --     .word 0x41 # [
 1B4 : 00000002; --     .word 0x02
 1B5 : 00000004; --     .word 0x04
 1B6 : 00000008; --     .word 0x08
 1B7 : 00000010; --     .word 0x10
 1B8 : 00000020; --     .word 0x20 # "\"
 1B9 : 00000041; --     .word 0x41
 1BA : 00000041; --     .word 0x41
 1BB : 0000007f; --     .word 0x7F
 1BC : 00000000; --     .word 0x00
 1BD : 00000000; --     .word 0x00 # ]
 1BE : 00000004; --     .word 0x04
 1BF : 00000002; --     .word 0x02
 1C0 : 00000001; --     .word 0x01
 1C1 : 00000002; --     .word 0x02
 1C2 : 00000004; --     .word 0x04 # ^
 1C3 : 00000040; --     .word 0x40
 1C4 : 00000040; --     .word 0x40
 1C5 : 00000040; --     .word 0x40
 1C6 : 00000040; --     .word 0x40
 1C7 : 00000040; --     .word 0x40 # _
 1C8 : 00000000; --     .word 0x00
 1C9 : 00000001; --     .word 0x01
 1CA : 00000002; --     .word 0x02
 1CB : 00000004; --     .word 0x04
 1CC : 00000000; --     .word 0x00 # `
 1CD : 00000020; --     .word 0x20
 1CE : 00000054; --     .word 0x54
 1CF : 00000054; --     .word 0x54
 1D0 : 00000054; --     .word 0x54
 1D1 : 00000078; --     .word 0x78 # a
 1D2 : 0000007f; --     .word 0x7F
 1D3 : 00000048; --     .word 0x48
 1D4 : 00000044; --     .word 0x44
 1D5 : 00000044; --     .word 0x44
 1D6 : 00000038; --     .word 0x38 # b
 1D7 : 00000038; --     .word 0x38
 1D8 : 00000044; --     .word 0x44
 1D9 : 00000044; --     .word 0x44
 1DA : 00000044; --     .word 0x44
 1DB : 00000020; --     .word 0x20 # c
 1DC : 00000038; --     .word 0x38
 1DD : 00000044; --     .word 0x44
 1DE : 00000044; --     .word 0x44
 1DF : 00000048; --     .word 0x48
 1E0 : 0000007f; --     .word 0x7F # d
 1E1 : 00000038; --     .word 0x38
 1E2 : 00000054; --     .word 0x54
 1E3 : 00000054; --     .word 0x54
 1E4 : 00000054; --     .word 0x54
 1E5 : 00000018; --     .word 0x18 # e
 1E6 : 00000008; --     .word 0x08
 1E7 : 0000007e; --     .word 0x7E
 1E8 : 00000009; --     .word 0x09
 1E9 : 00000001; --     .word 0x01
 1EA : 00000002; --     .word 0x02 # f
 1EB : 00000008; --     .word 0x08
 1EC : 00000014; --     .word 0x14
 1ED : 00000054; --     .word 0x54
 1EE : 00000054; --     .word 0x54
 1EF : 0000003c; --     .word 0x3C # g
 1F0 : 0000007f; --     .word 0x7F
 1F1 : 00000008; --     .word 0x08
 1F2 : 00000004; --     .word 0x04
 1F3 : 00000004; --     .word 0x04
 1F4 : 00000078; --     .word 0x78 # h
 1F5 : 00000000; --     .word 0x00
 1F6 : 00000044; --     .word 0x44
 1F7 : 0000007d; --     .word 0x7D
 1F8 : 00000040; --     .word 0x40
 1F9 : 00000000; --     .word 0x00 # i
 1FA : 00000020; --     .word 0x20
 1FB : 00000040; --     .word 0x40
 1FC : 00000044; --     .word 0x44
 1FD : 0000003d; --     .word 0x3D
 1FE : 00000000; --     .word 0x00 # j
 1FF : 00000000; --     .word 0x00
 200 : 0000007f; --     .word 0x7F
 201 : 00000010; --     .word 0x10
 202 : 00000028; --     .word 0x28
 203 : 00000044; --     .word 0x44 # k
 204 : 00000000; --     .word 0x00
 205 : 00000041; --     .word 0x41
 206 : 0000007f; --     .word 0x7F
 207 : 00000040; --     .word 0x40
 208 : 00000000; --     .word 0x00 # l
 209 : 0000007c; --     .word 0x7C
 20A : 00000004; --     .word 0x04
 20B : 00000018; --     .word 0x18
 20C : 00000004; --     .word 0x04
 20D : 00000078; --     .word 0x78 # m
 20E : 0000007c; --     .word 0x7C
 20F : 00000008; --     .word 0x08
 210 : 00000004; --     .word 0x04
 211 : 00000004; --     .word 0x04
 212 : 00000078; --     .word 0x78 # n
 213 : 00000038; --     .word 0x38
 214 : 00000044; --     .word 0x44
 215 : 00000044; --     .word 0x44
 216 : 00000044; --     .word 0x44
 217 : 00000038; --     .word 0x38 # o
 218 : 0000007c; --     .word 0x7C
 219 : 00000014; --     .word 0x14
 21A : 00000014; --     .word 0x14
 21B : 00000014; --     .word 0x14
 21C : 00000008; --     .word 0x08 # p
 21D : 00000008; --     .word 0x08
 21E : 00000014; --     .word 0x14
 21F : 00000014; --     .word 0x14
 220 : 00000018; --     .word 0x18
 221 : 0000007c; --     .word 0x7C # q
 222 : 0000007c; --     .word 0x7C
 223 : 00000008; --     .word 0x08
 224 : 00000004; --     .word 0x04
 225 : 00000004; --     .word 0x04
 226 : 00000008; --     .word 0x08 # r
 227 : 00000048; --     .word 0x48
 228 : 00000054; --     .word 0x54
 229 : 00000054; --     .word 0x54
 22A : 00000054; --     .word 0x54
 22B : 00000020; --     .word 0x20 # s
 22C : 00000004; --     .word 0x04
 22D : 0000003f; --     .word 0x3F
 22E : 00000044; --     .word 0x44
 22F : 00000040; --     .word 0x40
 230 : 00000020; --     .word 0x20 # t
 231 : 0000003c; --     .word 0x3C
 232 : 00000040; --     .word 0x40
 233 : 00000040; --     .word 0x40
 234 : 00000020; --     .word 0x20
 235 : 0000007c; --     .word 0x7C # u
 236 : 0000001c; --     .word 0x1C
 237 : 00000020; --     .word 0x20
 238 : 00000040; --     .word 0x40
 239 : 00000020; --     .word 0x20
 23A : 0000001c; --     .word 0x1C # v
 23B : 0000003c; --     .word 0x3C
 23C : 00000040; --     .word 0x40
 23D : 00000030; --     .word 0x30
 23E : 00000040; --     .word 0x40
 23F : 0000003c; --     .word 0x3C # w
 240 : 00000044; --     .word 0x44
 241 : 00000028; --     .word 0x28
 242 : 00000010; --     .word 0x10
 243 : 00000028; --     .word 0x28
 244 : 00000044; --     .word 0x44 # x
 245 : 0000000c; --     .word 0x0C
 246 : 00000050; --     .word 0x50
 247 : 00000050; --     .word 0x50
 248 : 00000050; --     .word 0x50
 249 : 0000003c; --     .word 0x3C # y
 24A : 00000044; --     .word 0x44
 24B : 00000064; --     .word 0x64
 24C : 00000054; --     .word 0x54
 24D : 0000004c; --     .word 0x4C
 24E : 00000044; --     .word 0x44 # z
 24F : 00000000; --     .word 0x00
 250 : 00000008; --     .word 0x08
 251 : 00000036; --     .word 0x36
 252 : 00000041; --     .word 0x41
 253 : 00000000; --     .word 0x00 # {
 254 : 00000000; --     .word 0x00
 255 : 00000000; --     .word 0x00
 256 : 0000007f; --     .word 0x7F
 257 : 00000000; --     .word 0x00
 258 : 00000000; --     .word 0x00 # |
 259 : 00000000; --     .word 0x00
 25A : 00000041; --     .word 0x41
 25B : 00000036; --     .word 0x36
 25C : 00000008; --     .word 0x08
 25D : 00000000; --     .word 0x00 # }
 25E : 00000002; --     .word 0x02
 25F : 00000001; --     .word 0x01
 260 : 00000002; --     .word 0x02
 261 : 00000004; --     .word 0x04
 262 : 00000002; --     .word 0x02 # ~
 263 : 000000ff; --     .word 0xff
 264 : 000000ff; --     .word 0xff
 265 : 000000ff; --     .word 0xff
 266 : 000000ff; --     .word 0xff
 267 : 000000ff; --     .word 0xff # blackblock
 268 : 00000048;
 269 : 00000065;
 26A : 0000006c;
 26B : 0000006c;
 26C : 0000006f;
 26D : 0000002c;
 26E : 00000020;
 26F : 00000057;
 270 : 0000006f;
 271 : 00000072;
 272 : 0000006c;
 273 : 00000064;
 274 : 00000021;
 275 : 00000000; --     .string "Hello, World!"
 276 : 00000000;
 277 : 00000000;
 278 : 00000000;
 279 : 00000000;
 27A : 00000000;
 27B : 00000000;
 27C : 00000000;
 27D : 00000000;
 27E : 00000000;
 27F : 00000000;
 280 : 00000000;
 281 : 00000000;
 282 : 00000000;
 283 : 00000000;
 284 : 00000000;
 285 : 00000000;
 286 : 00000000;
 287 : 00000000;
 288 : 00000000;
 289 : 00000000;
 28A : 00000000;
 28B : 00000000;
 28C : 00000000;
 28D : 00000000;
 28E : 00000000;
 28F : 00000000;
 290 : 00000000;
 291 : 00000000;
 292 : 00000000;
 293 : 00000000;
 294 : 00000000;
 295 : 00000000;
 296 : 00000000;
 297 : 00000000;
 298 : 00000000;
 299 : 00000000;
 29A : 00000000;
 29B : 00000000;
 29C : 00000000;
 29D : 00000000;
 29E : 00000000;
 29F : 00000000;
 2A0 : 00000000;
 2A1 : 00000000;
 2A2 : 00000000;
 2A3 : 00000000;
 2A4 : 00000000;
 2A5 : 00000000;
 2A6 : 00000000;
 2A7 : 00000000;
 2A8 : 00000000;
 2A9 : 00000000;
 2AA : 00000000;
 2AB : 00000000;
 2AC : 00000000;
 2AD : 00000000;
 2AE : 00000000;
 2AF : 00000000;
 2B0 : 00000000;
 2B1 : 00000000;
 2B2 : 00000000;
 2B3 : 00000000;
 2B4 : 00000000;
 2B5 : 00000000;
 2B6 : 00000000;
 2B7 : 00000000;
 2B8 : 00000000;
 2B9 : 00000000;
 2BA : 00000000;
 2BB : 00000000;
 2BC : 00000000;
 2BD : 00000000;
 2BE : 00000000;
 2BF : 00000000;
 2C0 : 00000000;
 2C1 : 00000000;
 2C2 : 00000000;
 2C3 : 00000000;
 2C4 : 00000000;
 2C5 : 00000000;
 2C6 : 00000000;
 2C7 : 00000000;
 2C8 : 00000000;
 2C9 : 00000000;
 2CA : 00000000;
 2CB : 00000000;
 2CC : 00000000;
 2CD : 00000000;
 2CE : 00000000;
 2CF : 00000000;
 2D0 : 00000000;
 2D1 : 00000000;
 2D2 : 00000000;
 2D3 : 00000000;
 2D4 : 00000000;
 2D5 : 00000000;
 2D6 : 00000000;
 2D7 : 00000000;
 2D8 : 00000000;
 2D9 : 00000000;
 2DA : 00000000;
 2DB : 00000000;
 2DC : 00000000;
 2DD : 00000000;
 2DE : 00000000;
 2DF : 00000000;
 2E0 : 00000000;
 2E1 : 00000000;
 2E2 : 00000000;
 2E3 : 00000000;
 2E4 : 00000000;
 2E5 : 00000000;
 2E6 : 00000000;
 2E7 : 00000000;
 2E8 : 00000000;
 2E9 : 00000000;
 2EA : 00000000;
 2EB : 00000000;
 2EC : 00000000;
 2ED : 00000000;
 2EE : 00000000;
 2EF : 00000000;
 2F0 : 00000000;
 2F1 : 00000000;
 2F2 : 00000000;
 2F3 : 00000000;
 2F4 : 00000000;
 2F5 : 00000000;
 2F6 : 00000000;
 2F7 : 00000000;
 2F8 : 00000000;
 2F9 : 00000000;
 2FA : 00000000;
 2FB : 00000000;
 2FC : 00000000;
 2FD : 00000000;
 2FE : 00000000;
 2FF : 00000000;
 300 : 00000000;
 301 : 00000000;
 302 : 00000000;
 303 : 00000000;
 304 : 00000000;
 305 : 00000000;
 306 : 00000000;
 307 : 00000000;
 308 : 00000000;
 309 : 00000000;
 30A : 00000000;
 30B : 00000000;
 30C : 00000000;
 30D : 00000000;
 30E : 00000000;
 30F : 00000000;
 310 : 00000000;
 311 : 00000000;
 312 : 00000000;
 313 : 00000000;
 314 : 00000000;
 315 : 00000000;
 316 : 00000000;
 317 : 00000000;
 318 : 00000000;
 319 : 00000000;
 31A : 00000000;
 31B : 00000000;
 31C : 00000000;
 31D : 00000000;
 31E : 00000000;
 31F : 00000000;
 320 : 00000000;
 321 : 00000000;
 322 : 00000000;
 323 : 00000000;
 324 : 00000000;
 325 : 00000000;
 326 : 00000000;
 327 : 00000000;
 328 : 00000000;
 329 : 00000000;
 32A : 00000000;
 32B : 00000000;
 32C : 00000000;
 32D : 00000000;
 32E : 00000000;
 32F : 00000000;
 330 : 00000000;
 331 : 00000000;
 332 : 00000000;
 333 : 00000000;
 334 : 00000000;
 335 : 00000000;
 336 : 00000000;
 337 : 00000000;
 338 : 00000000;
 339 : 00000000;
 33A : 00000000;
 33B : 00000000;
 33C : 00000000;
 33D : 00000000;
 33E : 00000000;
 33F : 00000000;
 340 : 00000000;
 341 : 00000000;
 342 : 00000000;
 343 : 00000000;
 344 : 00000000;
 345 : 00000000;
 346 : 00000000;
 347 : 00000000;
 348 : 00000000;
 349 : 00000000;
 34A : 00000000;
 34B : 00000000;
 34C : 00000000;
 34D : 00000000;
 34E : 00000000;
 34F : 00000000;
 350 : 00000000;
 351 : 00000000;
 352 : 00000000;
 353 : 00000000;
 354 : 00000000;
 355 : 00000000;
 356 : 00000000;
 357 : 00000000;
 358 : 00000000;
 359 : 00000000;
 35A : 00000000;
 35B : 00000000;
 35C : 00000000;
 35D : 00000000;
 35E : 00000000;
 35F : 00000000;
 360 : 00000000;
 361 : 00000000;
 362 : 00000000;
 363 : 00000000;
 364 : 00000000;
 365 : 00000000;
 366 : 00000000;
 367 : 00000000;
 368 : 00000000;
 369 : 00000000;
 36A : 00000000;
 36B : 00000000;
 36C : 00000000;
 36D : 00000000;
 36E : 00000000;
 36F : 00000000;
 370 : 00000000;
 371 : 00000000;
 372 : 00000000;
 373 : 00000000;
 374 : 00000000;
 375 : 00000000;
 376 : 00000000;
 377 : 00000000;
 378 : 00000000;
 379 : 00000000;
 37A : 00000000;
 37B : 00000000;
 37C : 00000000;
 37D : 00000000;
 37E : 00000000;
 37F : 00000000;
 380 : 00000000;
 381 : 00000000;
 382 : 00000000;
 383 : 00000000;
 384 : 00000000;
 385 : 00000000;
 386 : 00000000;
 387 : 00000000;
 388 : 00000000;
 389 : 00000000;
 38A : 00000000;
 38B : 00000000;
 38C : 00000000;
 38D : 00000000;
 38E : 00000000;
 38F : 00000000;
 390 : 00000000;
 391 : 00000000;
 392 : 00000000;
 393 : 00000000;
 394 : 00000000;
 395 : 00000000;
 396 : 00000000;
 397 : 00000000;
 398 : 00000000;
 399 : 00000000;
 39A : 00000000;
 39B : 00000000;
 39C : 00000000;
 39D : 00000000;
 39E : 00000000;
 39F : 00000000;
 3A0 : 00000000;
 3A1 : 00000000;
 3A2 : 00000000;
 3A3 : 00000000;
 3A4 : 00000000;
 3A5 : 00000000;
 3A6 : 00000000;
 3A7 : 00000000;
 3A8 : 00000000;
 3A9 : 00000000;
 3AA : 00000000;
 3AB : 00000000;
 3AC : 00000000;
 3AD : 00000000;
 3AE : 00000000;
 3AF : 00000000;
 3B0 : 00000000;
 3B1 : 00000000;
 3B2 : 00000000;
 3B3 : 00000000;
 3B4 : 00000000;
 3B5 : 00000000;
 3B6 : 00000000;
 3B7 : 00000000;
 3B8 : 00000000;
 3B9 : 00000000;
 3BA : 00000000;
 3BB : 00000000;
 3BC : 00000000;
 3BD : 00000000;
 3BE : 00000000;
 3BF : 00000000;
 3C0 : 00000000;
 3C1 : 00000000;
 3C2 : 00000000;
 3C3 : 00000000;
 3C4 : 00000000;
 3C5 : 00000000;
 3C6 : 00000000;
 3C7 : 00000000;
 3C8 : 00000000;
 3C9 : 00000000;
 3CA : 00000000;
 3CB : 00000000;
 3CC : 00000000;
 3CD : 00000000;
 3CE : 00000000;
 3CF : 00000000;
 3D0 : 00000000;
 3D1 : 00000000;
 3D2 : 00000000;
 3D3 : 00000000;
 3D4 : 00000000;
 3D5 : 00000000;
 3D6 : 00000000;
 3D7 : 00000000;
 3D8 : 00000000;
 3D9 : 00000000;
 3DA : 00000000;
 3DB : 00000000;
 3DC : 00000000;
 3DD : 00000000;
 3DE : 00000000;
 3DF : 00000000;
 3E0 : 00000000;
 3E1 : 00000000;
 3E2 : 00000000;
 3E3 : 00000000;
 3E4 : 00000000;
 3E5 : 00000000;
 3E6 : 00000000;
 3E7 : 00000000;
 3E8 : 00000000;
 3E9 : 00000000;
 3EA : 00000000;
 3EB : 00000000;
 3EC : 00000000;
 3ED : 00000000;
 3EE : 00000000;
 3EF : 00000000;
 3F0 : 00000000;
 3F1 : 00000000;
 3F2 : 00000000;
 3F3 : 00000000;
 3F4 : 00000000;
 3F5 : 00000000;
 3F6 : 00000000;
 3F7 : 00000000;
 3F8 : 00000000;
 3F9 : 00000000;
 3FA : 00000000;
 3FB : 00000000;
 3FC : 00000000;
 3FD : 00000000;
 3FE : 00000000;
 3FF : 00000000;
END;
